data_global
_cell_length_a 8.4
_cell_length_b 5.8
_cell_length_c 3
_cell_angle_alpha 90
_cell_angle_beta 90
_cell_angle_gamma 90
_symmetry_space_group_name_H-M 'P -1'
loop_
_symmetry_equiv_pos_as_xyz
  'x,y,z'
loop_
_atom_site_label
_atom_site_fract_x
_atom_site_fract_y
_atom_site_fract_z
B 0.2 5.3926e-33 0.5
B 0.4 5.3926e-33 0.5
B 0.6 5.3926e-33 0.5
B 0.8 5.3926e-33 0.5
B 0.1 0.25 0.5
B 0.3 0.25 0.5
B 0.7 0.25 0.5
B 0.9 0.25 0.5
B 0.2 0.5 0.5
B 0.4 0.5 0.5
B 0.6 0.5 0.5
B 0.8 0.5 0.5
B 0.1 0.75 0.5
B 0.3 0.75 0.5
B 0.7 0.75 0.5
B 0.9 0.75 0.5
Fe 0.500533 0.242185 0.56589
