
#======================================================================
# CRYSTAL DATA
#----------------------------------------------------------------------
data_VESTA_phase_1

_chemical_name_common                  'XCrySDen XSF file'
_cell_length_a                         10.140000
_cell_length_b                         5.847910
_cell_length_c                         7.094420
_cell_angle_alpha                      90.000000
_cell_angle_beta                       90.000000
_cell_angle_gamma                      90.000000
_cell_volume                           420.683557
_space_group_name_H-M_alt              'P 1'
_space_group_IT_number                 1

loop_
_space_group_symop_operation_xyz
   'x, y, z'

loop_
   _atom_site_label
   _atom_site_occupancy
   _atom_site_fract_x
   _atom_site_fract_y
   _atom_site_fract_z
   _atom_site_adp_type
   _atom_site_U_iso_or_equiv
   _atom_site_type_symbol
   B1         1.0     0.514568    -0.012829     0.050451    Uiso  ? B
   B2         1.0     0.686326    -0.000219    -0.005265    Uiso  ? B
   B3         1.0     0.846043     0.002523    -0.047106    Uiso  ? B
   B4         1.0     0.608545     0.250832     0.073988    Uiso  ? B
   B5         1.0     0.762562     0.250770    -0.017292    Uiso  ? B
   B6         1.0     0.514651     0.514855     0.051317    Uiso  ? B
   B7         1.0     0.686405     0.502242    -0.005355    Uiso  ? B
   B8         1.0     0.845867     0.499371    -0.046902    Uiso  ? B
   B9         1.0     0.595998     0.750700    -0.013491    Uiso  ? B
   B10        1.0     0.762883     0.750660    -0.038203    Uiso  ? B
   B11        1.0     0.005155     0.002262    -0.047370    Uiso  ? B
   B12        1.0     0.164801    -0.000462    -0.005446    Uiso  ? B
   B13        1.0     0.336617    -0.012867     0.050402    Uiso  ? B
   B14        1.0     0.088605     0.251049    -0.017597    Uiso  ? B
   B15        1.0     0.242638     0.251117     0.073683    Uiso  ? B
   B16        1.0     0.005257     0.499129    -0.047006    Uiso  ? B
   B17        1.0     0.164758     0.502023    -0.005607    Uiso  ? B
   B18        1.0     0.336527     0.514880     0.051151    Uiso  ? B
   B19        1.0     0.088299     0.751116    -0.038598    Uiso  ? B
   B20        1.0     0.255195     0.751209    -0.013832    Uiso  ? B
   Fe1        1.0     0.425543     0.251095     0.131803    Uiso  ? Fe
