data_global
_cell_length_a 10.14
_cell_length_b 5.84791
_cell_length_c 7.09442
_cell_angle_alpha 90
_cell_angle_beta 90
_cell_angle_gamma 90
_symmetry_space_group_name_H-M 'P -1'
loop_
_symmetry_equiv_pos_as_xyz
  'x,y,z'
loop_
_atom_site_label
_atom_site_fract_x
_atom_site_fract_y
_atom_site_fract_z
B 0.510652 0.00397488 -0.000557267
B 0.680052 0.00397488 -0.000557267
B 0.849462 0.00397488 -0.000557267
B 0.595362 0.249415 -0.000557267
B 0.764262 0.249415 -0.000557267
B 0.510652 0.499925 -0.000557267
B 0.680052 0.499925 -0.000557267
B 0.849462 0.499925 -0.000557267
B 0.595362 0.745365 -0.000557267
B 0.764262 0.745365 -0.000557267
B 0.00244164 0.00397488 -0.000557267
B 0.171842 0.00397488 -0.000557267
B 0.341252 0.00397488 -0.000557267
B 0.0871416 0.249415 -0.000557267
B 0.256042 0.249415 -0.000557267
B 0.00244164 0.499925 -0.000557267
B 0.171842 0.499925 -0.000557267
B 0.341252 0.499925 -0.000557267
B 0.0871416 0.745365 -0.000557267
B 0.256042 0.745365 -0.000557267
Fe 0.428221 0.245218 -0.0188615
