data_global
_cell_length_a 14.9661
_cell_length_b 11.8156
_cell_length_c 5.98568
_cell_angle_alpha 90
_cell_angle_beta 90
_cell_angle_gamma 90
_symmetry_space_group_name_H-M 'P -1'
loop_
_symmetry_equiv_pos_as_xyz
  'x,y,z'
loop_
_atom_site_label
_atom_site_fract_x
_atom_site_fract_y
_atom_site_fract_z
B 0 0 0
B 0.11111 0 0
B 0.222223 0 0
B 0.0555567 0.125 0
B 0.166667 0.125 0
B 6.16298e-33 0.25 0
B 0.11111 0.25 0
B 0.222223 0.25 0
B 0.0555567 0.375 0
B 0.166667 0.375 0
B 1.2326e-32 0.5 0
B 0.11111 0.5 0
B 0.222223 0.5 0
B 0.0555567 0.625 0
B 0.166667 0.625 0
B 3.08149e-32 0.75 0
B 0.11111 0.75 0
B 0.222223 0.75 0
B 0.0555567 0.875 0
B 0.166667 0.875 0
B 0.333333 0 0
B 0.444443 0 0
B 0.555557 0 0
B 0.38889 0.125 0
B 0.5 0.125 0
B 0.333333 0.25 0
B 0.444443 0.25 0
B 0.555557 0.25 0
B 0.38889 0.375 0
B 0.5 0.375 0
B 0.333333 0.5 0
B 0.444443 0.5 0
B 0.555557 0.5 0
B 0.38889 0.625 0
B 0.5 0.625 0
B 0.333333 0.75 0
B 0.444443 0.75 0
B 0.555557 0.75 0
B 0.38889 0.875 0
B 0.5 0.875 0
B 0.666667 0 0
B 0.777777 0 0
B 0.88889 0 0
B 0.722223 0.125 0
B 0.833333 0.125 0
B 0.666667 0.25 0
B 0.777777 0.25 0
B 0.88889 0.25 0
B 0.722223 0.375 0
B 0.833333 0.375 0
B 0.666667 0.5 0
B 0.777777 0.5 0
B 0.88889 0.5 0
B 0.722223 0.625 0
B 0.833333 0.625 0
B 0.666667 0.75 0
B 0.777777 0.75 0
B 0.88889 0.75 0
B 0.722223 0.875 0
B 0.833333 0.875 0
