data_global
_cell_length_a 10.14
_cell_length_b 5.86
_cell_length_c 5
_cell_angle_alpha 90
_cell_angle_beta 90
_cell_angle_gamma 90
_symmetry_space_group_name_H-M 'P -1'
loop_
_symmetry_equiv_pos_as_xyz
  'x,y,z'
loop_
_atom_site_label
_atom_site_fract_x
_atom_site_fract_y
_atom_site_fract_z
B 0.5 0 0
B 0.666665 0 0
B 0.833335 0 0
B 0.583335 0.24744 0
B 0.749505 0.24744 0
B 0.5 0.5 0
B 0.666665 0.5 0
B 0.833335 0.5 0
B 0.583335 0.74744 0
B 0.749505 0.74744 0
B 0 0 0
B 0.166665 0 0
B 0.333335 0 0
B 0.083335 0.24744 0
B 0.249505 0.24744 0
B 0 0.5 0
B 0.166665 0.5 0
B 0.333335 0.5 0
B 0.083335 0.74744 0
B 0.249505 0.74744 0
Fe 0.407941 0.254356 0.048211
