data_global
_cell_length_a 8.4
_cell_length_b 2.9
_cell_length_c 3
_cell_angle_alpha 90
_cell_angle_beta 90
_cell_angle_gamma 90
_symmetry_space_group_name_H-M 'P -1'
loop_
_symmetry_equiv_pos_as_xyz
  'x,y,z'
loop_
_atom_site_label
_atom_site_fract_x
_atom_site_fract_y
_atom_site_fract_z
B 0.2 4.62223e-33 0.5
B 0.4 4.62223e-33 0.5
B 0.6 4.62223e-33 0.5
B 0.8 4.62223e-33 0.5
B 0.1 0.5 0.5
B 0.3 0.5 0.5
B 0.7 0.5 0.5
B 0.9 0.5 0.5
